This is the test 2.
New line.
Abnother line.